*DEVICE 1
.model N_10_SP NMOS
*****Model Selectors/Controllers*********************************
+  LEVEL     =   5.4000E+01                          VERSION   =   4.3000E+00                        
+  BINUNIT   =   1.0000E+00                          PARAMCHK  =   1.0000E+00                        
+  MOBMOD    =   0.0000E+00                          CAPMOD    =   2.0000E+00                        
+  IGCMOD    =   1.0000E+00                          IGBMOD    =   1.0000E+00                        
+  GEOMOD    =   0.0000E+00                          DIOMOD    =   2.0000E+00                        
+  RDSMOD    =   0.0000E+00                          RBODYMOD  =   0.0000E+00                        
+  RGATEMOD  =   0.0000E+00                          PERMOD    =   1.0000E+00                        
+  ACNQSMOD  =   0.0000E+00                          TRNQSMOD  =   0.0000E+00                        
+  RGEOMOD   =   1.0000E+00                              FNOIMOD   =   1.0000E+00                   
+  TNOIMOD   =   0.0000E+00                        


*****Process Parameters******************************************
+  TOXE      =  '2.2500E-09+DTOXE_N_10_SP'           TOXP      =  '1.8220E-09+DTOXP_N_10_SP'         
+  TOXM      =   2.2500E-09                          EPSROX    =   3.9000E+00                        
+  XJ        =   1.2000E-07                          NGATE     =   1.3000E+20                        
+  NDEP      =   1.0000E+17                          NSD       =   1.0000E+20                        
+  RSH       =   8.0000E+00                        


*****Basic Model Parameters**************************************
+  WINT      =  '2.0210E-08+DWINT_N_10_SP'           LINT      =  -4.0910E-09                        
+  VTH0      = '-1.0000E-03+DVTH0_N_10_SP'           K1        =   1.5690E-01                        
+  K2        =   4.0000E-03                          K3        = '-1.2880E+00+DK3_N_10_SP'           
+  K3B       =   2.9280E+00                          W0        =   9.0000E-08                        
+  DVT0      =   3.9630E+00                          DVT1      =   5.6320E-01                        
+  DVT2      =  -3.3200E-02                          DVT0W     =   5.2510E-01                        
+  DVT1W     =   1.1170E+07                          DVT2W     =  -7.7000E-01                        
+  DSUB      =   3.9000E-02                          MINV      =   7.7040E-01                        
+  VOFFL     = '-4.9270E-09+DVOFFL_N_10_SP'          DVTP0     =   8.9100E-06                        
+  DVTP1     =  -8.0630E-01                          LPE0      =  '1.0000E-10+DLPE0_N_10_SP'         
+  LPEB      =  -1.6990E-07                          PHIN      =   8.7670E-02                        
+  CDSC      =   4.6490E-04                          CDSCB     =   1.5000E-04                        
+  CDSCD     =   0.0000E+00                          CIT       =   1.5520E-03                        
+  VOFF      =  -6.3870E-02                          NFACTOR   =   1.0000E-01                        
+  ETA0      =   5.0000E-05                          ETAB      =  -1.8500E-04                        
+  VFB       =  -1.0000E+00                          U0        =   2.3200E-02                        
+  UA        =  -1.5500E-09                          UB        =   3.4800E-18                        
+  UC        =   1.7330E-10                          VSAT      =   1.6250E+05                        
+  A0        =   8.8340E+00                          AGS       =   1.0020E+00                        
+  A1        =   0.0000E+00                          A2        =   1.0000E+00                        
+  B0        =   0.0000E+00                          B1        =   1.0000E-08                        
+  KETA      =  -4.4080E-02                          DWG       =  -5.4000E-09                        
+  DWB       =   4.8000E-09                          PCLM      =   1.0000E-01                        
+  PDIBLC1   =   1.0000E-07                          PDIBLC2   =   3.9540E-02                        
+  PDIBLCB   =   1.0000E-01                          DROUT     =   5.5990E-01                        
+  PVAG      =   8.6180E+00                          DELTA     =   1.0000E-02                        
+  PSCBE1    =   6.5350E+09                          PSCBE2    =   3.3000E-01                        
+  FPROUT    =   1.0000E-02                          PDITS     =   6.1100E-01                        
+  PDITSD    =   8.8000E-01                          PDITSL    =   1.0000E+05                        


*****Parameters for Asymmetric and Bias-Dependent Rds Model******
+  RDSW      =  '5.0000E+01+DRDSW_N_10_SP'           RDSWMIN   =   5.0000E+01                        
+  PRWG      =   2.8000E-01                          PRWB      =   4.4700E-01                        
+  WR        =   1.0000E+00                        


*****Impact Ionization Current Model Parameters******************
+  ALPHA0    =   2.0000E-07                          ALPHA1    =   4.0000E+00                        
+  BETA0     =   1.5000E+01                        


*****Gate-Induced Drain Leakage Model Parameters*****************
+  AGIDL     =   1.1080E-08                          BGIDL     =   1.3900E+09                        
+  CGIDL     =   2.9630E-01                          EGIDL     =   9.4400E-01                        


*****Gate Dielectric Tunneling Current Model Parameters**********
+  TOXREF    =   2.2500E-09                          DLCIG     =   1.8000E-08                        
+  AIGBACC   =   1.1980E-02                          BIGBACC   =   8.0130E-03                        
+  CIGBACC   =   6.2560E-01                          NIGBACC   =   4.3970E+00                        
+  AIGBINV   =   1.5300E-02                          BIGBINV   =   4.8520E-03                        
+  CIGBINV   =   1.0000E-03                          EIGBINV   =   1.1000E+00                        
+  NIGBINV   =   1.6000E+00                          AIGC      =   1.1380E-02                        
+  BIGC      =   1.8790E-03                          CIGC      =   1.0000E-04                        
+  AIGSD     =   9.8830E-03                          BIGSD     =   1.2690E-03                        
+  CIGSD     =   1.5540E-01                          NIGC      =   1.0000E+00                        
+  POXEDGE   =   1.0000E+00                          PIGCD     =   2.5000E+00                        
+  NTOX      =   1.0000E+00                        


*****Charge and Capacitance Model Parameters*********************
+  DLC       =   1.6400E-08                          DWC       =  -3.0000E-08                        
+  XPART     =   1.0000E+00                          CGSO      =  '5.0000E-11+DCGSO_N_10_SP'         
+  CGDO      =  '5.0000E-11+DCGDO_N_10_SP'           CGBO      =   0.0000E+00                        
+  CGDL      =  '2.2000E-10+DCGDL_N_10_SP'           CGSL      =  '2.2000E-10+DCGSL_N_10_SP'         
+  CLC       =   1.0000E-07                          CLE       =   6.0000E-01                        
+  CF        =  '9.2600E-11+DCF_N_10_SP'             CKAPPAS   =   3.0000E+00                        
+  VFBCV     =  -1.0000E+00                          ACDE      =   2.8080E-01                        
+  MOIN      =   1.1830E+01                          NOFF      =   2.4860E+00                        
+  VOFFCV    =  -1.3720E-02                        


*****High-Speed/RF Model Parameters******************************


*****Flicker and Thermal Noise Model Parameters******************


+ef=0.9448
+noia=3.8700000E+41
+noib=1.8600000E+25
+noic=6.7000000E+08
+em=6.3600000E+06
+ntnoi=1.0

*****Layout-Dependent Parasitics Model Parameters****************
+  XL        = '-1.0000E-08+DXL_N_10_SP'             XW        =  '0.0000E+00+DXW_N_10_SP'           
+  DMCG      =   1.6000E-07                          DMCI      =   1.0000E-07                        
+  DWJ       =   0.0000E+00                        


*****Asymmetric Source/Drain Junction Diode Model Parameters*****
+  JSS       =   2.3350E-07                          JSWS      =   7.0330E-14                        
+  JSWGS     =   3.2986E-14                          IJTHSFWD  =   3.4450E-03                        
+  IJTHSREV  =   1.6910E-03                          BVS       =   1.1470E+01                        
+  XJBVS     =   1.0000E+00                          PBS       =   6.1000E-01                        
+  CJS       =  '1.0700E-03+DCJS_N_10_SP'            MJS       =   2.9000E-01                        
+  PBSWS     =   9.9000E-01                          CJSWS     =  '1.2600E-10+DCJSWS_N_10_SP'        
+  MJSWS     =   1.0000E-01                          PBSWGS    =   6.0000E-01                        
+  CJSWGS    =  '2.3100E-10+DCJSWGS_N_10_SP'         MJSWGS    =   9.8900E-01                        


*****Temperature Dependence Parameters***************************
+  TNOM      =   2.5000E+01                          KT1       =  -3.8000E-01                        
+  KT1L      =   1.0000E-09                          KT2       =  -4.0740E-02                        
+  UTE       =  -1.0220E+00                          UA1       =   4.3500E-09                        
+  UB1       =  -4.1040E-18                          UC1       =   2.6360E-10                        
+  PRT       =   0.0000E+00                          AT        =   1.0000E+05                        
+  NJS       =   1.0560E+00                          TPB       =   1.3000E-03                        
+  TCJ       =   9.0000E-04                          TPBSW     =   3.5150E-03                        
+  TCJSW     =   4.0000E-04                          TPBSWG    =   1.2470E-03                        
+  TCJSWG    =   8.2290E-03                          XTIS      =   3.0000E+00                        


*****dW and dL Parameters****************************************
+  LL        =   4.3480E-16                          WL        =  -4.0050E-15                        
+  LLN       =   9.0000E-01                          WLN       =   1.0000E+00                        
+  LW        =   3.2080E-15                          WW        =  -1.5010E-15                        
+  LWN       =   1.0000E+00                          WWN       =   1.0000E+00                        
+  LWL       =  -1.6220E-21                          WWL       =  '1.7820E-22+DWWL_N_10_SP'          
+  LLC       =  -9.0100E-16                          WLC       =   0.0000E+00                        
+  LWC       =   0.0000E+00                          WWC       =   1.0000E-15                        
+  LWLC      =   0.0000E+00                          WWLC      =   0.0000E+00                        


*****Range Parameters for Model Application**********************
+  LMIN      =   8.0000E-08                          LMAX      =   5.0000E-05                        
+  WMIN      =   1.2000E-07                          WMAX      =   1.0000E-04                        


*****Other Parameters********************************************
+  PVTH0     = '-1.2500E-03+DPVTH0_N_10_SP'          LK3       =   7.2000E-01                        
+  WK3       =  -1.3000E-01                          LK3B      =  -2.0000E-01                        
+  PK3B      =   2.0000E-02                          LDSUB     =  -1.2720E-03                        
+  WDSUB     =   5.0000E-04                          LLPE0     =  '3.8910E-08+DLLPE0_N_10_SP'        
+  LCIT      =   7.0000E-05                          WVOFF     =  -1.3400E-03                        
+  LETA0     =   1.3000E-05                          WETA0     =   3.7760E-05                        
+  LETAB     =   8.2510E-06                          WU0       =   2.4000E-04                        
+  PU0       =  -6.5000E-05                          LUB       =  -2.5220E-20                        
+  WUB       =  -3.0000E-20                          PUB       =  -6.5270E-21                        
+  WUC       =  -5.5000E-12                          PVSAT     =  -7.3390E+02                        
+  LAGS      =   8.0000E-01                          LKETA     =   4.3920E-03                        
+  PKETA     =  -5.0000E-04                          LDELTA    =   5.5800E-04                        
+  LVOFFCV   =  -5.3220E-03                          PKT1      =   1.0000E-03                        
+  LUTE      =   7.5240E-02                          WUTE      =   2.5000E-02                        
+  PUTE      =   7.4000E-03                          LUB1      =   6.5000E-20                        
+  WUC1      =  -7.2000E-12                          SAREF     =   1.7600E-06                        
+  SBREF     =   1.7600E-06                          WLOD      =   0.0000E+00                        
+  KVTH0     =   5.0000E-08                          LKVTH0    =   3.9000E-06                        
+  WKVTH0    =   9.0000E-08                          PKVTH0    =   0.0000E+00                        
+  LLODVTH   =   1.0000E+00                          WLODVTH   =   1.0000E+00                        
+  STK2      =   0.0000E+00                          LODK2     =   1.0000E+00                        
+  LODETA0   =   1.0000E+00                          KU0       =  -1.5200E-08                        
+  LKU0      =  -6.2900E-09                          WKU0      =  -1.0000E-08                        
+  PKU0      =   1.2800E-15                          LLODKU0   =   1.0500E+00                        
+  WLODKU0   =   1.0000E+00                          KVSAT     =   9.9000E-01                        
+  STETA0    =  -2.8000E-11                          TKU0      =   0.0000E+00                        


*****User Drop Parameters****************************************


*DEVICE 2
.model P_10_SP PMOS
*****Model Selectors/Controllers*********************************
+  LEVEL     =   5.4000E+01                          VERSION   =   4.3000E+00                        
+  BINUNIT   =   1.0000E+00                          PARAMCHK  =   1.0000E+00                        
+  MOBMOD    =   0.0000E+00                          CAPMOD    =   2.0000E+00                        
+  IGCMOD    =   1.0000E+00                          IGBMOD    =   1.0000E+00                        
+  GEOMOD    =   0.0000E+00                          DIOMOD    =   2.0000E+00                        
+  RDSMOD    =   0.0000E+00                          RBODYMOD  =   0.0000E+00                        
+  PERMOD    =   1.0000E+00                          ACNQSMOD  =   0.0000E+00                        
+  RGEOMOD   =   1.0000E+00                          FNOIMOD   =   1.0000E+00                        
+  TNOIMOD   =   0.0000E+00                       


*****Process Parameters******************************************
+  TOXE      =  '2.4500E-09+DTOXE_P_10_SP'           TOXP      =  '1.9110E-09+DTOXP_P_10_SP'         
+  TOXM      =   2.4500E-09                          EPSROX    =   3.9000E+00                        
+  XJ        =   1.2000E-07                          NGATE     =   1.0000E+20                        
+  NDEP      =   3.6000E+16                          NSD       =   1.0000E+20                        
+  RSH       =   8.0000E+00                        


*****Basic Model Parameters**************************************
+  WINT      =  '8.0090E-09+DWINT_P_10_SP'           LINT      =  -2.1220E-08                        
+  VTH0      = '-5.8100E-02+DVTH0_P_10_SP'           K1        =   2.2500E-01                        
+  K2        =  -2.4750E-02                          K3        = '-8.8950E+00+DK3_P_10_SP'           
+  K3B       =   3.9000E+00                          W0        =   2.1220E-06                        
+  DVT0      =   4.6860E+00                          DVT1      =   8.7290E-01                        
+  DVT2      =   1.2770E-02                          DVT0W     =   3.0000E-01                        
+  DVT1W     =   3.9660E+06                          DVT2W     =   2.4940E-01                        
+  DSUB      =   1.0160E+00                          MINV      =   2.8230E-01                        
+  VOFFL     = '-2.5000E-09+DVOFFL_P_10_SP'          DVTP0     =   6.0620E-06                        
+  DVTP1     =   4.4890E-01                          LPE0      = '-1.2670E-07+DLPE0_P_10_SP'         
+  LPEB      =   6.2500E-08                          PHIN      =   0.0000E+00                        
+  CDSC      =   0.0000E+00                          CDSCB     =  -8.0000E-03                        
+  CDSCD     =   0.0000E+00                          CIT       =   2.7750E-04                        
+  VOFF      =  -1.2000E-01                          NFACTOR   =   2.0000E+00                        
+  ETA0      =   3.0000E-02                          ETAB      =  -5.0310E-01                        
+  VFB       =  -1.0000E+00                          U0        =  '9.2600E-03+DU0_P_10_SP'           
+  UA        =   4.2790E-10                          UB        =   1.1290E-18                        
+  UC        =   8.5910E-11                          EU        =   1.0000E+00                        
+  VSAT      =   1.3670E+05                          A0        =   1.8600E+00                        
+  AGS       =   1.4670E+00                          A1        =   0.0000E+00                        
+  A2        =   1.0000E+00                          B0        =   7.0000E-07                        
+  B1        =   6.0000E-07                          KETA      =  -5.1120E-02                        
+  DWG       =  -1.7240E-08                          DWB       =   0.0000E+00                        
+  PCLM      =   2.9400E-01                          PDIBLC1   =   5.1850E-08                        
+  PDIBLC2   =   4.0800E-03                          PDIBLCB   =  -5.0000E-01                        
+  DROUT     =   4.6980E-04                          PVAG      =   1.2960E+00                        
+  DELTA     =   2.3890E-03                          PSCBE1    =   6.3370E+09                        
+  PSCBE2    =   3.0000E-03                          FPROUT    =   3.0000E+02                        
+  PDITS     =   2.9810E-01                          PDITSD    =   7.1760E-01                        
+  PDITSL    =   5.0000E+05                        


*****Parameters for Asymmetric and Bias-Dependent Rds Model******
+  RDSW      =  '2.2500E+02+DRDSW_P_10_SP'           RDSWMIN   =   8.0000E+01                        
+  PRWG      =   0.0000E+00                          PRWB      =   2.0000E-01                        
+  WR        =   1.0000E+00                        


*****Impact Ionization Current Model Parameters******************
+  ALPHA0    =   2.1400E-08                          ALPHA1    =   7.0000E-02                        
+  BETA0     =   1.2000E+01                        


*****Gate-Induced Drain Leakage Model Parameters*****************
+  AGIDL     =   4.4320E-09                          BGIDL     =   4.8080E+09                        
+  CGIDL     =   9.1730E-03                          EGIDL     =  -2.1800E+00                        


*****Gate Dielectric Tunneling Current Model Parameters**********
+  TOXREF    =   2.4500E-09                          DLCIG     =   3.2000E-08                        
+  AIGBACC   =   1.1030E-02                          BIGBACC   =   6.7610E-03                        
+  CIGBACC   =   5.7700E-01                          NIGBACC   =   4.3960E+00                        
+  AIGBINV   =   9.4660E-03                          BIGBINV   =   2.3400E-03                        
+  CIGBINV   =   1.8320E-03                          EIGBINV   =   1.6330E+00                        
+  NIGBINV   =   3.1240E+00                          AIGC      =   6.7900E-03                        
+  BIGC      =   8.8750E-04                          CIGC      =   6.3430E-04                        
+  AIGSD     =   5.6520E-03                          BIGSD     =   7.8050E-05                        
+  CIGSD     =   1.8030E-02                          NIGC      =   7.9250E-01                        
+  POXEDGE   =   1.0000E+00                          PIGCD     =   2.0000E+00                        
+  NTOX      =   1.0000E+00                        


*****Charge and Capacitance Model Parameters*********************
+  DLC       =   3.4200E-08                          DWC       =  -3.0000E-08                        
+  XPART     =   1.0000E+00                          CGSO      =  '4.2000E-11+DCGSO_P_10_SP'         
+  CGDO      =  '4.2000E-11+DCGDO_P_10_SP'           CGBO      =   0.0000E+00                        
+  CGDL      =  '2.0000E-10+DCGDL_P_10_SP'           CGSL      =  '2.0000E-10+DCGSL_P_10_SP'         
+  CLC       =   1.0000E-07                          CLE       =   6.0000E-01                        
+  CF        =  '9.0800E-11+DCF_P_10_SP'             CKAPPAS   =   7.3000E-01                        
+  CKAPPAD   =   7.3000E-01                          ACDE      =   3.5090E-01                        
+  MOIN      =   6.7000E+00                          NOFF      =   2.9360E+00                        
+  VOFFCV    =  -5.2570E-02                        


*****High-Speed/RF Model Parameters******************************


*****Flicker and Thermal Noise Model Parameters******************


+EF=1.103336
+NOIA=1.0635922E+41
+NOIB=6.9613951E+26
+NOIC=5.2897264E+09
+EM=4.1000000E+07
+NTNOI=1.0                     

*****Layout-Dependent Parasitics Model Parameters****************
+  XL        = '-1.0000E-08+DXL_P_10_SP'             XW        =  '0.0000E+00+DXW_P_10_SP'           
+  DMCG      =   1.6000E-07                          DMCI      =   1.0000E-07                        
+  DWJ       =   0.0000E+00                        


*****Asymmetric Source/Drain Junction Diode Model Parameters*****
+  JSS       =   1.9950E-07                          JSWS      =   1.0920E-13                        
+  JSWGS     =   1.0000E-13                          IJTHSFWD  =   3.5000E-03                        
+  IJTHSREV  =   2.1750E-03                          BVS       =   8.9640E+00                        
+  XJBVS     =   1.0000E+00                          PBS       =   7.3000E-01                        
+  CJS       =  '1.2600E-03+DCJS_P_10_SP'            MJS       =   3.1000E-01                        
+  PBSWS     =   9.9000E-01                          CJSWS     =  '1.2900E-10+DCJSWS_P_10_SP'        
+  MJSWS     =   1.0000E-01                          PBSWGS    =   6.0000E-01                        
+  CJSWGS    =  '2.4500E-10+DCJSWGS_P_10_SP'         MJSWGS    =   9.8900E-01                        


*****Temperature Dependence Parameters***************************
+  TNOM      =   2.5000E+01                          KT1       =  -3.4000E-01                        
+  KT1L      =  -9.5660E-09                          KT2       =  -1.0000E-02                        
+  UTE       =  -1.9620E+00                          UA1       =  -8.3500E-10                        
+  UB1       =  -1.3400E-18                          UC1       =   0.0000E+00                        
+  PRT       =  -1.6750E+02                          AT        =   1.0340E+05                        
+  NJS       =   1.0540E+00                          TPB       =   1.4000E-03                        
+  TCJ       =   8.0000E-04                          TPBSW     =   1.0000E-04                        
+  TCJSW     =   4.0000E-04                          TPBSWG    =   1.5050E-03                        
+  TCJSWG    =   7.6180E-03                          XTIS      =   3.0000E+00                        


*****dW and dL Parameters****************************************
+  LL        =   5.5440E-16                          WL        =   7.1650E-16                        
+  LLN       =   1.0500E+00                          WLN       =   9.7350E-01                        
+  LW        =  -2.1170E-15                          WW        =  -4.3920E-15                        
+  LWN       =   1.0000E+00                          WWN       =   9.9400E-01                        
+  LWL       =   2.3760E-23                          WWL       = '-1.4950E-22+DWWL_P_10_SP'          
+  LLC       =  -6.7780E-16                          WLC       =   0.0000E+00                        
+  LWC       =   0.0000E+00                          WWC       =   1.0000E-15                        
+  LWLC      =   0.0000E+00                          WWLC      =   0.0000E+00                        


*****Range Parameters for Model Application**********************
+  LMIN      =   8.0000E-08                          LMAX      =   5.0000E-05                        
+  WMIN      =   1.2000E-07                          WMAX      =   1.0000E-04                        


*****Other Parameters********************************************
+  PVTH0     =  '0.0000E+00+DPVTH0_P_10_SP'          LK3       =   1.0000E+00                        
+  PK3       =  -1.4700E-01                          LK3B      =  -7.6900E-01                        
+  WK3B      =   2.1290E+00                          WDSUB     =   1.1010E-02                        
+  PDVTP1    =  -2.0000E-02                          LLPE0     =  '2.9370E-08+DLLPE0_P_10_SP'        
+  LLPEB     =   1.3590E-08                          LNFACTOR  =   2.6600E-01                        
+  LETAB     =   3.9610E-02                          LAGS      =   1.8360E+00                        
+  PAGS      =  -8.4000E-02                          LB0       =  -5.5000E-08                        
+  LB1       =  -5.8900E-08                          LKETA     =  -1.9200E-03                        
+  LDELTA    =   2.4950E-03                          WRDSW     =   1.0000E+01                        
+  LVOFFCV   =   4.1250E-04                          WKT1      =   5.0000E-03                        
+  WUA1      =   3.9440E-11                          SAREF     =   1.7600E-06                        
+  SBREF     =   1.7600E-06                          WLOD      =   0.0000E+00                        
+  KVTH0     =  -8.0000E-10                          LKVTH0    =  -1.5000E-06                        
+  WKVTH0    =   6.0000E-07                          PKVTH0    =   0.0000E+00                        
+  LLODVTH   =   8.0000E-01                          WLODVTH   =   1.0000E+00                        
+  STK2      =   0.0000E+00                          LODK2     =   1.0000E+00                        
+  LODETA0   =   1.0000E+00                          KU0       =   5.3000E-07                        
+  LKU0      =   5.8000E-04                          WKU0      =  -1.1000E-09                        
+  PKU0      =  -2.5000E-10                          LLODKU0   =   6.8000E-01                        
+  WLODKU0   =   8.5000E-01                          KVSAT     =   1.0000E+00                        
+  STETA0    =   3.8000E-10                          TKU0      =   0.0000E+00                        


*****User Drop Parameters****************************************


